REMARK  14 active torsions:
REMARK  status: ('A' for Active; 'I' for Inactive)
REMARK    1  A    between atoms: C_2  and  O_1 
REMARK    2  A    between atoms: C_2  and  C_4 
REMARK    3  A    between atoms: C_2  and  C_3 
REMARK    4  A    between atoms: N_5  and  C_3 
REMARK    5  A    between atoms: C_4  and  C_6 
REMARK    6  A    between atoms: C_6  and  C_10 
REMARK    7  A    between atoms: C_6  and  C_9 
REMARK    8  A    between atoms: C_8  and  C_13 
REMARK       I    between atoms: C_9  and  N_14 
REMARK    9  A    between atoms: C_10  and  C_16 
REMARK       I    between atoms: N_18  and  C_13 
REMARK   10  A    between atoms: N_14  and  C_20 
REMARK   11  A    between atoms: N_17  and  C_23 
REMARK   12  A    between atoms: C_24  and  N_18 
REMARK   13  A    between atoms: C_23  and  C_29 
REMARK   14  A    between atoms: C_25  and  O_33 
ROOT
ATOM      1  C   UNL d   1       1.774  -1.334   1.288  0.00  0.00     0.147 C 
ENDROOT
BRANCH   1   2
ATOM      2  C   UNL d   1       0.594  -2.327   1.283  0.00  0.00     0.047 C 
BRANCH   2   3
ATOM      3  C   UNL d   1       1.006  -3.820   1.374  0.00  0.00     0.084 C 
BRANCH   3   4
ATOM      4  C   UNL d   1      -0.245  -4.729   1.314  0.00  0.00     0.052 C 
BRANCH   4   5
ATOM      5  C   UNL d   1       0.078  -6.206   1.392  0.00  0.00    -0.057 A 
ATOM      6  C   UNL d   1       0.235  -6.862   2.619  0.00  0.00     0.007 A 
ATOM      7  C   UNL d   1       0.675  -8.190   2.653  0.00  0.00     0.001 A 
ATOM      8  C   UNL d   1       0.946  -8.875   1.469  0.00  0.00     0.000 A 
ATOM      9  C   UNL d   1       0.732  -8.249   0.246  0.00  0.00     0.001 A 
ATOM     10  C   UNL d   1       0.292  -6.927   0.211  0.00  0.00     0.007 A 
ENDBRANCH   4   5
ENDBRANCH   3   4
BRANCH   3  11
ATOM     11  C   UNL d   1       2.055  -4.176   0.310  0.00  0.00     0.222 C 
ATOM     12  O   UNL d   1       1.799  -4.496  -0.851  0.00  0.00    -0.273 OA
ATOM     13  N   UNL d   1       3.352  -4.104   0.791  0.00  0.00    -0.350 N 
ATOM     14  H   UNL d   1       3.469  -3.648   1.687  0.00  0.00     0.163 HD
BRANCH  13  15
ATOM     15  C   UNL d   1       4.561  -4.578   0.118  0.00  0.00     0.147 C 
ATOM     16  C   UNL d   1       4.856  -6.096   0.361  0.00  0.00     0.149 C 
ATOM     17  C   UNL d   1       5.287  -6.172   1.840  0.00  0.00     0.073 C 
ATOM     18  C   UNL d   1       6.100  -4.913   1.920  0.00  0.00    -0.047 A 
ATOM     19  C   UNL d   1       7.089  -4.598   2.824  0.00  0.00     0.008 A 
ATOM     20  C   UNL d   1       5.747  -4.032   0.875  0.00  0.00    -0.027 A 
ATOM     21  C   UNL d   1       7.802  -3.412   2.622  0.00  0.00     0.001 A 
ATOM     22  C   UNL d   1       7.497  -2.562   1.542  0.00  0.00     0.001 A 
ATOM     23  C   UNL d   1       6.447  -2.858   0.671  0.00  0.00     0.010 A 
BRANCH  16  24
ATOM     24  O   UNL d   1       3.822  -7.003   0.053  0.00  0.00    -0.393 OA
ATOM     25  H   UNL d   1       2.967  -6.575   0.288  0.00  0.00     0.210 HD
ENDBRANCH  16  24
ENDBRANCH  13  15
ENDBRANCH   3  11
ENDBRANCH   2   3
ENDBRANCH   1   2
BRANCH   1  26
ATOM     26  O   UNL d   1       2.575  -1.689   2.419  0.00  0.00    -0.394 OA
ATOM     27  H   UNL d   1       3.496  -1.536   2.162  0.00  0.00     0.210 HD
ENDBRANCH   1  26
BRANCH   1  28
ATOM     28  C   UNL d   1       1.272   0.146   1.337  0.00  0.00     0.305 C 
BRANCH  28  29
ATOM     29  N   UNL d   1       2.280   1.238   1.201  0.00  0.00     0.108 N 
ATOM     30  C   UNL d   1       3.269   1.309   2.295  0.00  0.00     0.303 C 
ATOM     31  C   UNL d   1       2.932   2.058   3.606  0.00  0.00     0.303 C 
ATOM     32  N   UNL d   1       2.109   3.259   3.494  0.00  0.00     0.097 N 
ATOM     33  C   UNL d   1       1.073   3.145   2.459  0.00  0.00     0.318 C 
ATOM     34  C   UNL d   1       1.565   2.566   1.103  0.00  0.00     0.342 C 
BRANCH  32  35
ATOM     35  C   UNL d   1       1.596   3.733   4.796  0.00  0.00     0.312 C 
BRANCH  35  36
ATOM     36  C   UNL d   1       0.588   2.830   5.473  0.00  0.00    -0.013 A 
ATOM     37  C   UNL d   1      -0.775   2.947   5.213  0.00  0.00     0.125 A 
ATOM     38  N   UNL d   1      -1.718   2.105   5.693  0.00  0.00    -0.273 NA
ATOM     39  C   UNL d   1      -1.287   1.098   6.481  0.00  0.00     0.116 A 
ATOM     40  C   UNL d   1       0.039   0.905   6.827  0.00  0.00     0.020 A 
ATOM     41  C   UNL d   1       0.984   1.796   6.329  0.00  0.00     0.012 A 
ENDBRANCH  35  36
ENDBRANCH  32  35
BRANCH  34  42
ATOM     42  C   UNL d   1       2.374   3.617   0.284  0.00  0.00     0.253 C 
ATOM     43  N   UNL d   1       3.191   3.076  -0.686  0.00  0.00    -0.351 N 
ATOM     44  H   UNL d   1       3.375   2.081  -0.570  0.00  0.00     0.163 HD
ATOM     45  O   UNL d   1       2.159   4.830   0.396  0.00  0.00    -0.271 OA
BRANCH  43  46
ATOM     46  C   UNL d   1       3.936   3.850  -1.691  0.00  0.00     0.022 C 
ATOM     47  C   UNL d   1       5.144   4.568  -1.056  0.00  0.00     0.037 C 
ATOM     48  C   UNL d   1       4.491   2.904  -2.773  0.00  0.00     0.037 C 
ATOM     49  C   UNL d   1       2.995   4.841  -2.409  0.00  0.00     0.037 C 
ENDBRANCH  43  46
ENDBRANCH  34  42
ENDBRANCH  28  29
ENDBRANCH   1  28
TORSDOF 14
