MODEL 1
REMARK VINA RESULT:    -1.481      0.000      0.000
REMARK INTER + INTRA:          -0.324
REMARK INTER:                  -4.667
REMARK INTRA:                   4.343
REMARK UNBOUND:                 2.282
REMARK  14 active torsions:
REMARK  status: ('A' for Active; 'I' for Inactive)
REMARK    1  A    between atoms: C_2  and  O_1 
REMARK    2  A    between atoms: C_2  and  C_4 
REMARK    3  A    between atoms: C_2  and  C_3 
REMARK    4  A    between atoms: N_5  and  C_3 
REMARK    5  A    between atoms: C_4  and  C_6 
REMARK    6  A    between atoms: C_6  and  C_10 
REMARK    7  A    between atoms: C_6  and  C_9 
REMARK    8  A    between atoms: C_8  and  C_13 
REMARK       I    between atoms: C_9  and  N_14 
REMARK    9  A    between atoms: C_10  and  C_16 
REMARK       I    between atoms: N_18  and  C_13 
REMARK   10  A    between atoms: N_14  and  C_20 
REMARK   11  A    between atoms: N_17  and  C_23 
REMARK   12  A    between atoms: C_24  and  N_18 
REMARK   13  A    between atoms: C_23  and  C_29 
REMARK   14  A    between atoms: C_25  and  O_33 
ROOT
ATOM      1  C   UNL d   1      15.006  19.675   2.065  0.00  0.00     0.147 C 
ENDROOT
BRANCH   1   2
ATOM      2  C   UNL d   1      14.550  20.307   3.396  0.00  0.00     0.047 C 
BRANCH   2   3
ATOM      3  C   UNL d   1      13.688  21.587   3.240  0.00  0.00     0.084 C 
BRANCH   3   4
ATOM      4  C   UNL d   1      12.294  21.233   2.669  0.00  0.00     0.052 C 
BRANCH   4   5
ATOM      5  C   UNL d   1      11.316  22.388   2.702  0.00  0.00    -0.057 A 
ATOM      6  C   UNL d   1       9.982  22.214   3.089  0.00  0.00     0.007 A 
ATOM      7  C   UNL d   1       9.073  23.271   2.969  0.00  0.00     0.001 A 
ATOM      8  C   UNL d   1       9.489  24.508   2.479  0.00  0.00     0.000 A 
ATOM      9  C   UNL d   1      10.826  24.706   2.152  0.00  0.00     0.001 A 
ATOM     10  C   UNL d   1      11.733  23.654   2.273  0.00  0.00     0.007 A 
ENDBRANCH   4   5
ENDBRANCH   3   4
BRANCH   3  11
ATOM     11  C   UNL d   1      13.612  22.374   4.557  0.00  0.00     0.222 C 
ATOM     12  O   UNL d   1      13.358  21.881   5.657  0.00  0.00    -0.273 OA
ATOM     13  N   UNL d   1      13.859  23.726   4.389  0.00  0.00    -0.350 N 
ATOM     14  H   UNL d   1      14.246  23.999   3.495  0.00  0.00     0.163 HD
BRANCH  13  15
ATOM     15  C   UNL d   1      13.660  24.781   5.383  0.00  0.00     0.147 C 
ATOM     16  C   UNL d   1      14.229  24.423   6.796  0.00  0.00     0.149 C 
ATOM     17  C   UNL d   1      13.281  23.328   7.327  0.00  0.00     0.073 C 
ATOM     18  C   UNL d   1      11.977  23.872   6.821  0.00  0.00    -0.047 A 
ATOM     19  C   UNL d   1      10.709  23.607   7.288  0.00  0.00     0.008 A 
ATOM     20  C   UNL d   1      12.199  24.778   5.762  0.00  0.00    -0.027 A 
ATOM     21  C   UNL d   1       9.648  24.335   6.741  0.00  0.00     0.001 A 
ATOM     22  C   UNL d   1       9.874  25.288   5.729  0.00  0.00     0.001 A 
ATOM     23  C   UNL d   1      11.154  25.500   5.216  0.00  0.00     0.010 A 
BRANCH  16  24
ATOM     24  O   UNL d   1      15.584  24.040   6.858  0.00  0.00    -0.393 OA
ATOM     25  H   UNL d   1      15.660  23.308   7.513  0.00  0.00     0.210 HD
ENDBRANCH  16  24
ENDBRANCH  13  15
ENDBRANCH   3  11
ENDBRANCH   2   3
ENDBRANCH   1   2
BRANCH   1  26
ATOM     26  O   UNL d   1      14.055  18.646   1.778  0.00  0.00    -0.394 OA
ATOM     27  H   UNL d   1      13.768  18.785   0.863  0.00  0.00     0.210 HD
ENDBRANCH   1  26
BRANCH   1  28
ATOM     28  C   UNL d   1      16.472  19.139   2.163  0.00  0.00     0.305 C 
BRANCH  28  29
ATOM     29  N   UNL d   1      16.718  17.897   2.954  0.00  0.00     0.108 N 
ATOM     30  C   UNL d   1      15.622  17.516   3.867  0.00  0.00     0.303 C 
ATOM     31  C   UNL d   1      15.521  18.151   5.274  0.00  0.00     0.303 C 
ATOM     32  N   UNL d   1      16.773  18.440   5.967  0.00  0.00     0.097 N 
ATOM     33  C   UNL d   1      17.833  18.899   5.059  0.00  0.00     0.318 C 
ATOM     34  C   UNL d   1      17.987  18.063   3.758  0.00  0.00     0.342 C 
BRANCH  32  35
ATOM     35  C   UNL d   1      16.594  19.302   7.153  0.00  0.00     0.312 C 
BRANCH  35  36
ATOM     36  C   UNL d   1      17.650  20.367   7.357  0.00  0.00    -0.013 A 
ATOM     37  C   UNL d   1      19.004  20.043   7.394  0.00  0.00     0.125 A 
ATOM     38  N   UNL d   1      20.003  20.951   7.459  0.00  0.00    -0.273 NA
ATOM     39  C   UNL d   1      19.641  22.250   7.500  0.00  0.00     0.116 A 
ATOM     40  C   UNL d   1      18.326  22.682   7.497  0.00  0.00     0.020 A 
ATOM     41  C   UNL d   1      17.320  21.724   7.443  0.00  0.00     0.012 A 
ENDBRANCH  35  36
ENDBRANCH  32  35
BRANCH  34  42
ATOM     42  C   UNL d   1      18.702  16.704   4.026  0.00  0.00     0.253 C 
ATOM     43  N   UNL d   1      19.480  16.684   5.164  0.00  0.00    -0.351 N 
ATOM     44  H   UNL d   1      19.710  17.607   5.529  0.00  0.00     0.163 HD
ATOM     45  O   UNL d   1      18.446  15.695   3.357  0.00  0.00    -0.271 OA
BRANCH  43  46
ATOM     46  C   UNL d   1      20.131  15.489   5.722  0.00  0.00     0.022 C 
ATOM     47  C   UNL d   1      21.294  15.020   4.825  0.00  0.00     0.037 C 
ATOM     48  C   UNL d   1      20.730  15.817   7.103  0.00  0.00     0.037 C 
ATOM     49  C   UNL d   1      19.093  14.368   5.944  0.00  0.00     0.037 C 
ENDBRANCH  43  46
ENDBRANCH  34  42
ENDBRANCH  28  29
ENDBRANCH   1  28
TORSDOF 14
ENDMDL
MODEL 2
REMARK VINA RESULT:     0.798      2.196      9.502
REMARK INTER + INTRA:           3.687
REMARK INTER:                   2.969
REMARK INTRA:                   0.718
REMARK UNBOUND:                 2.282
REMARK  14 active torsions:
REMARK  status: ('A' for Active; 'I' for Inactive)
REMARK    1  A    between atoms: C_2  and  O_1 
REMARK    2  A    between atoms: C_2  and  C_4 
REMARK    3  A    between atoms: C_2  and  C_3 
REMARK    4  A    between atoms: N_5  and  C_3 
REMARK    5  A    between atoms: C_4  and  C_6 
REMARK    6  A    between atoms: C_6  and  C_10 
REMARK    7  A    between atoms: C_6  and  C_9 
REMARK    8  A    between atoms: C_8  and  C_13 
REMARK       I    between atoms: C_9  and  N_14 
REMARK    9  A    between atoms: C_10  and  C_16 
REMARK       I    between atoms: N_18  and  C_13 
REMARK   10  A    between atoms: N_14  and  C_20 
REMARK   11  A    between atoms: N_17  and  C_23 
REMARK   12  A    between atoms: C_24  and  N_18 
REMARK   13  A    between atoms: C_23  and  C_29 
REMARK   14  A    between atoms: C_25  and  O_33 
ROOT
ATOM      1  C   UNL d   1      15.293  20.222   2.460  0.00  0.00     0.147 C 
ENDROOT
BRANCH   1   2
ATOM      2  C   UNL d   1      15.967  20.466   3.826  0.00  0.00     0.047 C 
BRANCH   2   3
ATOM      3  C   UNL d   1      15.312  19.712   5.013  0.00  0.00     0.084 C 
BRANCH   3   4
ATOM      4  C   UNL d   1      14.855  18.302   4.569  0.00  0.00     0.052 C 
BRANCH   4   5
ATOM      5  C   UNL d   1      15.679  17.728   3.437  0.00  0.00    -0.057 A 
ATOM      6  C   UNL d   1      17.061  17.536   3.555  0.00  0.00     0.007 A 
ATOM      7  C   UNL d   1      17.812  17.142   2.442  0.00  0.00     0.001 A 
ATOM      8  C   UNL d   1      17.192  16.923   1.213  0.00  0.00     0.000 A 
ATOM      9  C   UNL d   1      15.812  17.052   1.104  0.00  0.00     0.001 A 
ATOM     10  C   UNL d   1      15.063  17.443   2.213  0.00  0.00     0.007 A 
ENDBRANCH   4   5
ENDBRANCH   3   4
BRANCH   3  11
ATOM     11  C   UNL d   1      16.241  19.682   6.237  0.00  0.00     0.222 C 
ATOM     12  O   UNL d   1      16.352  20.592   7.058  0.00  0.00    -0.273 OA
ATOM     13  N   UNL d   1      16.963  18.504   6.332  0.00  0.00    -0.350 N 
ATOM     14  H   UNL d   1      16.662  17.748   5.730  0.00  0.00     0.163 HD
BRANCH  13  15
ATOM     15  C   UNL d   1      18.079  18.234   7.239  0.00  0.00     0.147 C 
ATOM     16  C   UNL d   1      19.388  19.006   6.865  0.00  0.00     0.149 C 
ATOM     17  C   UNL d   1      19.881  18.325   5.572  0.00  0.00     0.073 C 
ATOM     18  C   UNL d   1      19.557  16.899   5.912  0.00  0.00    -0.047 A 
ATOM     19  C   UNL d   1      20.106  15.755   5.380  0.00  0.00     0.008 A 
ATOM     20  C   UNL d   1      18.586  16.845   6.935  0.00  0.00    -0.027 A 
ATOM     21  C   UNL d   1      19.739  14.531   5.948  0.00  0.00     0.001 A 
ATOM     22  C   UNL d   1      18.820  14.477   7.013  0.00  0.00     0.001 A 
ATOM     23  C   UNL d   1      18.218  15.639   7.500  0.00  0.00     0.010 A 
BRANCH  16  24
ATOM     24  O   UNL d   1      19.285  20.406   6.732  0.00  0.00    -0.393 OA
ATOM     25  H   UNL d   1      19.871  20.816   7.408  0.00  0.00     0.210 HD
ENDBRANCH  16  24
ENDBRANCH  13  15
ENDBRANCH   3  11
ENDBRANCH   2   3
ENDBRANCH   1   2
BRANCH   1  26
ATOM     26  O   UNL d   1      16.340  20.312   1.490  0.00  0.00    -0.394 OA
ATOM     27  H   UNL d   1      16.330  21.222   1.158  0.00  0.00     0.210 HD
ENDBRANCH   1  26
BRANCH   1  28
ATOM     28  C   UNL d   1      14.137  21.243   2.206  0.00  0.00     0.305 C 
BRANCH  28  29
ATOM     29  N   UNL d   1      13.302  21.667   3.368  0.00  0.00     0.108 N 
ATOM     30  C   UNL d   1      11.854  21.425   3.212  0.00  0.00     0.303 C 
ATOM     31  C   UNL d   1      10.967  22.446   2.461  0.00  0.00     0.303 C 
ATOM     32  N   UNL d   1      11.302  23.859   2.614  0.00  0.00     0.097 N 
ATOM     33  C   UNL d   1      12.750  24.096   2.683  0.00  0.00     0.318 C 
ATOM     34  C   UNL d   1      13.525  23.139   3.630  0.00  0.00     0.342 C 
BRANCH  32  35
ATOM     35  C   UNL d   1      10.605  24.728   1.643  0.00  0.00     0.312 C 
BRANCH  35  36
ATOM     36  C   UNL d   1       9.172  25.075   1.984  0.00  0.00    -0.013 A 
ATOM     37  C   UNL d   1       8.196  25.165   0.994  0.00  0.00     0.125 A 
ATOM     38  N   UNL d   1       6.880  25.359   1.236  0.00  0.00    -0.273 NA
ATOM     39  C   UNL d   1       6.513  25.480   2.529  0.00  0.00     0.116 A 
ATOM     40  C   UNL d   1       7.402  25.435   3.589  0.00  0.00     0.020 A 
ATOM     41  C   UNL d   1       8.751  25.248   3.307  0.00  0.00     0.012 A 
ENDBRANCH  35  36
ENDBRANCH  32  35
BRANCH  34  42
ATOM     42  C   UNL d   1      13.316  23.513   5.129  0.00  0.00     0.253 C 
ATOM     43  N   UNL d   1      12.217  24.311   5.368  0.00  0.00    -0.351 N 
ATOM     44  H   UNL d   1      11.849  24.774   4.539  0.00  0.00     0.163 HD
ATOM     45  O   UNL d   1      13.988  22.991   6.027  0.00  0.00    -0.271 OA
BRANCH  43  46
ATOM     46  C   UNL d   1      11.712  24.676   6.701  0.00  0.00     0.022 C 
ATOM     47  C   UNL d   1      10.413  25.500   6.596  0.00  0.00     0.037 C 
ATOM     48  C   UNL d   1      11.375  23.401   7.499  0.00  0.00     0.037 C 
ATOM     49  C   UNL d   1      12.801  25.424   7.500  0.00  0.00     0.037 C 
ENDBRANCH  43  46
ENDBRANCH  34  42
ENDBRANCH  28  29
ENDBRANCH   1  28
TORSDOF 14
ENDMDL
