@<TRIPOS>MOLECULE
*****
 92 96 0 0 0
SMALL
GASTEIGER

@<TRIPOS>ATOM
      1 O           2.5748   -1.6889    2.4191 O.3     1  UNL1       -0.3905
      2 C           1.7736   -1.3343    1.2883 C.3     1  UNL1        0.0686
      3 C           1.2722    0.1459    1.3375 C.3     1  UNL1        0.0258
      4 C           0.5940   -2.3273    1.2832 C.3     1  UNL1       -0.0142
      5 N           2.2798    1.2376    1.2012 N.3     1  UNL1       -0.2868
      6 C           1.0060   -3.8202    1.3739 C.3     1  UNL1        0.0419
      7 C           3.2690    1.3094    2.2954 C.3     1  UNL1        0.0125
      8 C           1.5651    2.5664    1.1035 C.3     1  UNL1        0.1002
      9 C           2.0546   -4.1759    0.3105 C.2     1  UNL1        0.2170
     10 C          -0.2451   -4.7289    1.3140 C.3     1  UNL1       -0.0165
     11 C           2.9322    2.0584    3.6057 C.3     1  UNL1        0.0121
     12 C           1.0732    3.1453    2.4586 C.3     1  UNL1        0.0234
     13 C           2.3745    3.6170    0.2837 C.2     1  UNL1        0.2319
     14 N           3.3523   -4.1036    0.7911 N.am    1  UNL1       -0.3057
     15 O           1.7986   -4.4960   -0.8507 O.2     1  UNL1       -0.2755
     16 C           0.0777   -6.2058    1.3924 C.ar    1  UNL1       -0.0466
     17 N           2.1086    3.2591    3.4936 N.3     1  UNL1       -0.2950
     18 N           3.1912    3.0765   -0.6864 N.am    1  UNL1       -0.3092
     19 O           2.1595    4.8299    0.3964 O.2     1  UNL1       -0.2740
     20 C           4.5605   -4.5776    0.1183 C.3     1  UNL1        0.0748
     21 C           0.2351   -6.8625    2.6189 C.ar    1  UNL1       -0.0586
     22 C           0.2923   -6.9268    0.2108 C.ar    1  UNL1       -0.0586
     23 C           1.5960    3.7332    4.7962 C.3     1  UNL1        0.0256
     24 C           3.9359    3.8504   -1.6908 C.3     1  UNL1        0.0262
     25 C           4.8556   -6.0959    0.3615 C.3     1  UNL1        0.0816
     26 C           5.7473   -4.0321    0.8751 C.ar    1  UNL1       -0.0215
     27 C           0.6752   -8.1900    2.6534 C.ar    1  UNL1       -0.0615
     28 C           0.7319   -8.2492    0.2461 C.ar    1  UNL1       -0.0615
     29 C           0.5881    2.8302    5.4733 C.ar    1  UNL1       -0.0153
     30 C           5.1435    4.5680   -1.0564 C.3     1  UNL1       -0.0442
     31 C           4.4909    2.9041   -2.7730 C.3     1  UNL1       -0.0442
     32 C           2.9950    4.8410   -2.4094 C.3     1  UNL1       -0.0442
     33 O           3.8225   -7.0035    0.0533 O.3     1  UNL1       -0.3893
     34 C           5.2873   -6.1718    1.8403 C.3     1  UNL1        0.0008
     35 C           6.4471   -2.8584    0.6708 C.ar    1  UNL1       -0.0565
     36 C           6.0998   -4.9133    1.9198 C.ar    1  UNL1       -0.0398
     37 C           0.9457   -8.8748    1.4686 C.ar    1  UNL1       -0.0617
     38 C           0.9839    1.7959    6.3287 C.ar    1  UNL1       -0.0545
     39 C          -0.7746    2.9469    5.2131 C.ar    1  UNL1        0.0320
     40 C           7.4971   -2.5615    1.5417 C.ar    1  UNL1       -0.0614
     41 C           7.0892   -4.5983    2.8242 C.ar    1  UNL1       -0.0582
     42 C           0.0388    0.9052    6.8273 C.ar    1  UNL1       -0.0433
     43 N          -1.7184    2.1046    5.6931 N.ar    1  UNL1       -0.2629
     44 C           7.8023   -3.4122    2.6223 C.ar    1  UNL1       -0.0615
     45 C          -1.2872    1.0976    6.4814 C.ar    1  UNL1        0.0276
     46 H           3.4964   -1.5360    2.1624 H       1  UNL1        0.2098
     47 H           2.3734   -1.4729    0.3808 H       1  UNL1        0.0606
     48 H           0.6011    0.2424    0.4700 H       1  UNL1        0.0452
     49 H           0.6609    0.2963    2.2340 H       1  UNL1        0.0452
     50 H          -0.0313   -2.1549    0.3989 H       1  UNL1        0.0298
     51 H          -0.0361   -2.1156    2.1617 H       1  UNL1        0.0298
     52 H           1.4625   -3.9899    2.3604 H       1  UNL1        0.0398
     53 H           3.5953    0.3185    2.5998 H       1  UNL1        0.0439
     54 H           4.1762    1.7559    1.8734 H       1  UNL1        0.0439
     55 H           0.6666    2.4248    0.4822 H       1  UNL1        0.0571
     56 H          -0.8227   -4.5310    0.4008 H       1  UNL1        0.0320
     57 H          -0.9180   -4.4732    2.1458 H       1  UNL1        0.0320
     58 H           2.4728    1.3229    4.2688 H       1  UNL1        0.0439
     59 H           3.8851    2.3493    4.0687 H       1  UNL1        0.0439
     60 H           0.2684    2.4892    2.8031 H       1  UNL1        0.0447
     61 H           0.6235    4.1337    2.2980 H       1  UNL1        0.0447
     62 H           3.4690   -3.6485    1.6870 H       1  UNL1        0.1494
     63 H           3.3748    2.0812   -0.5703 H       1  UNL1        0.1492
     64 H           4.5388   -4.3363   -0.9495 H       1  UNL1        0.0574
     65 H           0.0252   -6.3502    3.5552 H       1  UNL1        0.0620
     66 H           0.1598   -6.4455   -0.7582 H       1  UNL1        0.0620
     67 H           1.1594    4.7337    4.6761 H       1  UNL1        0.0476
     68 H           2.4424    3.8885    5.4797 H       1  UNL1        0.0476
     69 H           5.7145   -6.3868   -0.2614 H       1  UNL1        0.0618
     70 H           0.8215   -8.6916    3.6073 H       1  UNL1        0.0618
     71 H           0.9369   -8.7741   -0.6840 H       1  UNL1        0.0618
     72 H           5.4950    5.3944   -1.6853 H       1  UNL1        0.0250
     73 H           5.9878    3.8756   -0.9389 H       1  UNL1        0.0250
     74 H           4.9225    4.9638   -0.0614 H       1  UNL1        0.0250
     75 H           5.0883    3.4611   -3.5082 H       1  UNL1        0.0250
     76 H           3.6855    2.3964   -3.3143 H       1  UNL1        0.0250
     77 H           5.1393    2.1333   -2.3405 H       1  UNL1        0.0250
     78 H           3.4017    5.1625   -3.3761 H       1  UNL1        0.0250
     79 H           2.8154    5.7454   -1.8197 H       1  UNL1        0.0250
     80 H           2.0230    4.3719   -2.6060 H       1  UNL1        0.0250
     81 H           2.9672   -6.5751    0.2884 H       1  UNL1        0.2099
     82 H           5.8753   -7.0740    2.0339 H       1  UNL1        0.0339
     83 H           4.4277   -6.1464    2.5189 H       1  UNL1        0.0339
     84 H           6.2117   -2.1990   -0.1587 H       1  UNL1        0.0621
     85 H           1.3219   -9.8946    1.4953 H       1  UNL1        0.0618
     86 H           2.0329    1.6580    6.5787 H       1  UNL1        0.0622
     87 H          -1.1573    3.7280    4.5606 H       1  UNL1        0.0833
     88 H           8.0963   -1.6696    1.3836 H       1  UNL1        0.0618
     89 H           7.3394   -5.2579    3.6481 H       1  UNL1        0.0620
     90 H           0.3329    0.0741    7.4580 H       1  UNL1        0.0633
     91 H           8.6163   -3.1518    3.2955 H       1  UNL1        0.0618
     92 H          -2.0614    0.4252    6.8391 H       1  UNL1        0.0829
@<TRIPOS>BOND
     1    30    24    1
     2    24    31    1
     3    24    32    1
     4    24    18    1
     5    18    13   am
     6    13    19    2
     7     8    12    1
     8    12    17    1
     9    17    23    1
    10    23    29    1
    11    29    39   ar
    12    39    43   ar
    13    43    45   ar
    14    45    42   ar
    15    42    38   ar
    16    29    38   ar
    17    17    11    1
    18    11     7    1
    19     7     5    1
    20     8     5    1
    21     5     3    1
    22     2     4    1
    23     4     6    1
    24     6    10    1
    25    10    16    1
    26    16    21   ar
    27    21    27   ar
    28    27    37   ar
    29    37    28   ar
    30    28    22   ar
    31    16    22   ar
    32     6     9    1
    33     9    15    2
    34     9    14   am
    35    14    20    1
    36    20    25    1
    37    25    33    1
    38    25    34    1
    39    34    36    1
    40    36    41   ar
    41    41    44   ar
    42    44    40   ar
    43    40    35   ar
    44    35    26   ar
    45    20    26    1
    46    36    26   ar
    47     8    13    1
    48     2     1    1
    49     2     3    1
    50     1    46    1
    51     2    47    1
    52     3    48    1
    53     3    49    1
    54     4    50    1
    55     4    51    1
    56     6    52    1
    57     7    53    1
    58     7    54    1
    59     8    55    1
    60    10    56    1
    61    10    57    1
    62    11    58    1
    63    11    59    1
    64    12    60    1
    65    12    61    1
    66    14    62    1
    67    18    63    1
    68    20    64    1
    69    21    65    1
    70    22    66    1
    71    23    67    1
    72    23    68    1
    73    25    69    1
    74    27    70    1
    75    28    71    1
    76    30    72    1
    77    30    73    1
    78    30    74    1
    79    31    75    1
    80    31    76    1
    81    31    77    1
    82    32    78    1
    83    32    79    1
    84    32    80    1
    85    33    81    1
    86    34    82    1
    87    34    83    1
    88    35    84    1
    89    37    85    1
    90    38    86    1
    91    39    87    1
    92    40    88    1
    93    41    89    1
    94    42    90    1
    95    44    91    1
    96    45    92    1
