MODEL 1
REMARK VINA RESULT:    -9.641      0.000      0.000
REMARK INTER + INTRA:         -19.173
REMARK INTER:                 -16.968
REMARK INTRA:                  -2.205
REMARK UNBOUND:                -2.205
REMARK  14 active torsions:
REMARK  status: ('A' for Active; 'I' for Inactive)
REMARK    1  A    between atoms: C_2  and  O_1 
REMARK    2  A    between atoms: C_2  and  C_4 
REMARK    3  A    between atoms: C_2  and  C_3 
REMARK    4  A    between atoms: N_5  and  C_3 
REMARK    5  A    between atoms: C_4  and  C_6 
REMARK    6  A    between atoms: C_6  and  C_10 
REMARK    7  A    between atoms: C_6  and  C_9 
REMARK    8  A    between atoms: C_8  and  C_13 
REMARK       I    between atoms: C_9  and  N_14 
REMARK    9  A    between atoms: C_10  and  C_16 
REMARK       I    between atoms: N_18  and  C_13 
REMARK   10  A    between atoms: N_14  and  C_20 
REMARK   11  A    between atoms: N_17  and  C_23 
REMARK   12  A    between atoms: C_24  and  N_18 
REMARK   13  A    between atoms: C_23  and  C_29 
REMARK   14  A    between atoms: C_25  and  O_33 
ROOT
ATOM      1  C   UNL d   1      16.835  20.423   7.037  0.00  0.00     0.147 C 
ENDROOT
BRANCH   1   2
ATOM      2  C   UNL d   1      18.088  19.870   6.330  0.00  0.00     0.047 C 
BRANCH   2   3
ATOM      3  C   UNL d   1      18.031  18.353   6.006  0.00  0.00     0.084 C 
BRANCH   3   4
ATOM      4  C   UNL d   1      18.312  18.112   4.503  0.00  0.00     0.052 C 
BRANCH   4   5
ATOM      5  C   UNL d   1      17.068  18.150   3.642  0.00  0.00    -0.057 A 
ATOM      6  C   UNL d   1      17.002  18.923   2.477  0.00  0.00     0.007 A 
ATOM      7  C   UNL d   1      15.791  19.048   1.786  0.00  0.00     0.001 A 
ATOM      8  C   UNL d   1      14.647  18.395   2.242  0.00  0.00     0.000 A 
ATOM      9  C   UNL d   1      14.721  17.576   3.363  0.00  0.00     0.001 A 
ATOM     10  C   UNL d   1      15.927  17.449   4.051  0.00  0.00     0.007 A 
ENDBRANCH   4   5
ENDBRANCH   3   4
BRANCH   3  11
ATOM     11  C   UNL d   1      18.963  17.550   6.925  0.00  0.00     0.222 C 
ATOM     12  O   UNL d   1      19.129  17.771   8.125  0.00  0.00    -0.273 OA
ATOM     13  N   UNL d   1      19.618  16.526   6.261  0.00  0.00    -0.350 N 
ATOM     14  H   UNL d   1      19.272  16.302   5.337  0.00  0.00     0.163 HD
BRANCH  13  15
ATOM     15  C   UNL d   1      20.721  15.716   6.777  0.00  0.00     0.147 C 
ATOM     16  C   UNL d   1      21.458  14.889   5.671  0.00  0.00     0.149 C 
ATOM     17  C   UNL d   1      20.446  13.796   5.270  0.00  0.00     0.073 C 
ATOM     18  C   UNL d   1      19.882  13.480   6.625  0.00  0.00    -0.047 A 
ATOM     19  C   UNL d   1      19.245  12.330   7.031  0.00  0.00     0.008 A 
ATOM     20  C   UNL d   1      20.120  14.547   7.518  0.00  0.00    -0.027 A 
ATOM     21  C   UNL d   1      18.918  12.210   8.386  0.00  0.00     0.001 A 
ATOM     22  C   UNL d   1      19.213  13.245   9.293  0.00  0.00     0.001 A 
ATOM     23  C   UNL d   1      19.799  14.435   8.858  0.00  0.00     0.010 A 
BRANCH  16  24
ATOM     24  O   UNL d   1      21.947  15.604   4.560  0.00  0.00    -0.393 OA
ATOM     25  H   UNL d   1      21.209  15.700   3.916  0.00  0.00     0.210 HD
ENDBRANCH  16  24
ENDBRANCH  13  15
ENDBRANCH   3  11
ENDBRANCH   2   3
ENDBRANCH   1   2
BRANCH   1  26
ATOM     26  O   UNL d   1      16.838  19.841   8.344  0.00  0.00    -0.394 OA
ATOM     27  H   UNL d   1      17.045  18.902   8.227  0.00  0.00     0.210 HD
ENDBRANCH   1  26
BRANCH   1  28
ATOM     28  C   UNL d   1      15.536  20.099   6.230  0.00  0.00     0.305 C 
BRANCH  28  29
ATOM     29  N   UNL d   1      14.984  21.152   5.328  0.00  0.00     0.108 N 
ATOM     30  C   UNL d   1      15.668  22.458   5.409  0.00  0.00     0.303 C 
ATOM     31  C   UNL d   1      15.278  23.478   6.505  0.00  0.00     0.303 C 
ATOM     32  N   UNL d   1      13.869  23.539   6.886  0.00  0.00     0.097 N 
ATOM     33  C   UNL d   1      13.221  22.221   6.884  0.00  0.00     0.318 C 
ATOM     34  C   UNL d   1      13.517  21.349   5.632  0.00  0.00     0.342 C 
BRANCH  32  35
ATOM     35  C   UNL d   1      13.638  24.311   8.125  0.00  0.00     0.312 C 
BRANCH  35  36
ATOM     36  C   UNL d   1      12.474  25.278   8.088  0.00  0.00    -0.013 A 
ATOM     37  C   UNL d   1      11.773  25.519   6.910  0.00  0.00     0.125 A 
ATOM     38  N   UNL d   1      10.658  26.280   6.828  0.00  0.00    -0.273 NA
ATOM     39  C   UNL d   1      10.220  26.840   7.975  0.00  0.00     0.116 A 
ATOM     40  C   UNL d   1      10.856  26.690   9.195  0.00  0.00     0.020 A 
ATOM     41  C   UNL d   1      12.008  25.913   9.245  0.00  0.00     0.012 A 
ENDBRANCH  35  36
ENDBRANCH  32  35
BRANCH  34  42
ATOM     42  C   UNL d   1      12.712  21.832   4.387  0.00  0.00     0.253 C 
ATOM     43  N   UNL d   1      11.469  22.352   4.679  0.00  0.00    -0.351 N 
ATOM     44  H   UNL d   1      11.123  22.111   5.606  0.00  0.00     0.163 HD
ATOM     45  O   UNL d   1      13.229  21.890   3.265  0.00  0.00    -0.271 OA
BRANCH  43  46
ATOM     46  C   UNL d   1      10.581  23.013   3.711  0.00  0.00     0.022 C 
ATOM     47  C   UNL d   1       9.915  21.983   2.775  0.00  0.00     0.037 C 
ATOM     48  C   UNL d   1       9.448  23.744   4.456  0.00  0.00     0.037 C 
ATOM     49  C   UNL d   1      11.356  24.087   2.919  0.00  0.00     0.037 C 
ENDBRANCH  43  46
ENDBRANCH  34  42
ENDBRANCH  28  29
ENDBRANCH   1  28
TORSDOF 14
ENDMDL
MODEL 2
REMARK VINA RESULT:    -9.431      3.020      6.696
REMARK INTER + INTRA:         -18.803
REMARK INTER:                 -17.561
REMARK INTRA:                  -1.241
REMARK UNBOUND:                -2.205
REMARK  14 active torsions:
REMARK  status: ('A' for Active; 'I' for Inactive)
REMARK    1  A    between atoms: C_2  and  O_1 
REMARK    2  A    between atoms: C_2  and  C_4 
REMARK    3  A    between atoms: C_2  and  C_3 
REMARK    4  A    between atoms: N_5  and  C_3 
REMARK    5  A    between atoms: C_4  and  C_6 
REMARK    6  A    between atoms: C_6  and  C_10 
REMARK    7  A    between atoms: C_6  and  C_9 
REMARK    8  A    between atoms: C_8  and  C_13 
REMARK       I    between atoms: C_9  and  N_14 
REMARK    9  A    between atoms: C_10  and  C_16 
REMARK       I    between atoms: N_18  and  C_13 
REMARK   10  A    between atoms: N_14  and  C_20 
REMARK   11  A    between atoms: N_17  and  C_23 
REMARK   12  A    between atoms: C_24  and  N_18 
REMARK   13  A    between atoms: C_23  and  C_29 
REMARK   14  A    between atoms: C_25  and  O_33 
ROOT
ATOM      1  C   UNL d   1      14.161  23.529   4.806  0.00  0.00     0.147 C 
ENDROOT
BRANCH   1   2
ATOM      2  C   UNL d   1      14.013  23.066   6.269  0.00  0.00     0.047 C 
BRANCH   2   3
ATOM      3  C   UNL d   1      15.212  22.244   6.811  0.00  0.00     0.084 C 
BRANCH   3   4
ATOM      4  C   UNL d   1      15.347  22.433   8.341  0.00  0.00     0.052 C 
BRANCH   4   5
ATOM      5  C   UNL d   1      16.540  21.715   8.935  0.00  0.00    -0.057 A 
ATOM      6  C   UNL d   1      17.852  22.145   8.698  0.00  0.00     0.007 A 
ATOM      7  C   UNL d   1      18.933  21.375   9.141  0.00  0.00     0.001 A 
ATOM      8  C   UNL d   1      18.716  20.184   9.833  0.00  0.00     0.000 A 
ATOM      9  C   UNL d   1      17.417  19.783  10.125  0.00  0.00     0.001 A 
ATOM     10  C   UNL d   1      16.339  20.550   9.686  0.00  0.00     0.007 A 
ENDBRANCH   4   5
ENDBRANCH   3   4
BRANCH   3  11
ATOM     11  C   UNL d   1      15.109  20.768   6.398  0.00  0.00     0.222 C 
ATOM     12  O   UNL d   1      14.058  20.134   6.305  0.00  0.00    -0.273 OA
ATOM     13  N   UNL d   1      16.344  20.198   6.135  0.00  0.00    -0.350 N 
ATOM     14  H   UNL d   1      17.121  20.841   6.049  0.00  0.00     0.163 HD
BRANCH  13  15
ATOM     15  C   UNL d   1      16.625  18.777   5.929  0.00  0.00     0.147 C 
ATOM     16  C   UNL d   1      18.152  18.452   5.822  0.00  0.00     0.149 C 
ATOM     17  C   UNL d   1      18.576  19.042   4.461  0.00  0.00     0.073 C 
ATOM     18  C   UNL d   1      17.362  18.685   3.654  0.00  0.00    -0.047 A 
ATOM     19  C   UNL d   1      17.260  18.555   2.288  0.00  0.00     0.008 A 
ATOM     20  C   UNL d   1      16.260  18.444   4.503  0.00  0.00    -0.027 A 
ATOM     21  C   UNL d   1      16.050  18.085   1.767  0.00  0.00     0.001 A 
ATOM     22  C   UNL d   1      14.970  17.780   2.616  0.00  0.00     0.001 A 
ATOM     23  C   UNL d   1      15.062  17.980   3.994  0.00  0.00     0.010 A 
BRANCH  16  24
ATOM     24  O   UNL d   1      18.973  18.892   6.880  0.00  0.00    -0.393 OA
ATOM     25  H   UNL d   1      19.646  18.194   7.048  0.00  0.00     0.210 HD
ENDBRANCH  16  24
ENDBRANCH  13  15
ENDBRANCH   3  11
ENDBRANCH   2   3
ENDBRANCH   1   2
BRANCH   1  26
ATOM     26  O   UNL d   1      15.167  24.546   4.821  0.00  0.00    -0.394 OA
ATOM     27  H   UNL d   1      15.965  24.149   4.443  0.00  0.00     0.210 HD
ENDBRANCH   1  26
BRANCH   1  28
ATOM     28  C   UNL d   1      12.798  24.029   4.226  0.00  0.00     0.305 C 
BRANCH  28  29
ATOM     29  N   UNL d   1      11.601  24.006   5.117  0.00  0.00     0.108 N 
ATOM     30  C   UNL d   1      10.714  22.840   4.933  0.00  0.00     0.303 C 
ATOM     31  C   UNL d   1       9.636  22.845   3.823  0.00  0.00     0.303 C 
ATOM     32  N   UNL d   1       8.982  24.119   3.535  0.00  0.00     0.097 N 
ATOM     33  C   UNL d   1       9.896  25.264   3.638  0.00  0.00     0.318 C 
ATOM     34  C   UNL d   1      10.798  25.269   4.904  0.00  0.00     0.342 C 
BRANCH  32  35
ATOM     35  C   UNL d   1       8.198  24.097   2.283  0.00  0.00     0.312 C 
BRANCH  35  36
ATOM     36  C   UNL d   1       6.695  24.157   2.448  0.00  0.00    -0.013 A 
ATOM     37  C   UNL d   1       5.898  24.861   1.550  0.00  0.00     0.125 A 
ATOM     38  N   UNL d   1       4.546  24.865   1.571  0.00  0.00    -0.273 NA
ATOM     39  C   UNL d   1       3.952  24.139   2.541  0.00  0.00     0.116 A 
ATOM     40  C   UNL d   1       4.647  23.426   3.502  0.00  0.00     0.020 A 
ATOM     41  C   UNL d   1       6.037  23.453   3.463  0.00  0.00     0.012 A 
ENDBRANCH  35  36
ENDBRANCH  32  35
BRANCH  34  42
ATOM     42  C   UNL d   1      10.006  25.690   6.179  0.00  0.00     0.253 C 
ATOM     43  N   UNL d   1      10.748  25.677   7.340  0.00  0.00    -0.351 N 
ATOM     44  H   UNL d   1      11.615  25.146   7.277  0.00  0.00     0.163 HD
ATOM     45  O   UNL d   1       8.861  26.153   6.106  0.00  0.00    -0.271 OA
BRANCH  43  46
ATOM     46  C   UNL d   1      10.285  26.176   8.645  0.00  0.00     0.022 C 
ATOM     47  C   UNL d   1      11.395  26.063   9.709  0.00  0.00     0.037 C 
ATOM     48  C   UNL d   1       9.918  27.668   8.533  0.00  0.00     0.037 C 
ATOM     49  C   UNL d   1       9.001  25.435   9.076  0.00  0.00     0.037 C 
ENDBRANCH  43  46
ENDBRANCH  34  42
ENDBRANCH  28  29
ENDBRANCH   1  28
TORSDOF 14
ENDMDL
MODEL 3
REMARK VINA RESULT:    -9.140      3.483     11.798
REMARK INTER + INTRA:         -18.291
REMARK INTER:                 -17.144
REMARK INTRA:                  -1.147
REMARK UNBOUND:                -2.205
REMARK  14 active torsions:
REMARK  status: ('A' for Active; 'I' for Inactive)
REMARK    1  A    between atoms: C_2  and  O_1 
REMARK    2  A    between atoms: C_2  and  C_4 
REMARK    3  A    between atoms: C_2  and  C_3 
REMARK    4  A    between atoms: N_5  and  C_3 
REMARK    5  A    between atoms: C_4  and  C_6 
REMARK    6  A    between atoms: C_6  and  C_10 
REMARK    7  A    between atoms: C_6  and  C_9 
REMARK    8  A    between atoms: C_8  and  C_13 
REMARK       I    between atoms: C_9  and  N_14 
REMARK    9  A    between atoms: C_10  and  C_16 
REMARK       I    between atoms: N_18  and  C_13 
REMARK   10  A    between atoms: N_14  and  C_20 
REMARK   11  A    between atoms: N_17  and  C_23 
REMARK   12  A    between atoms: C_24  and  N_18 
REMARK   13  A    between atoms: C_23  and  C_29 
REMARK   14  A    between atoms: C_25  and  O_33 
ROOT
ATOM      1  C   UNL d   1      13.072  25.409   5.778  0.00  0.00     0.147 C 
ENDROOT
BRANCH   1   2
ATOM      2  C   UNL d   1      11.616  25.540   5.286  0.00  0.00     0.047 C 
BRANCH   2   3
ATOM      3  C   UNL d   1      10.788  24.230   5.363  0.00  0.00     0.084 C 
BRANCH   3   4
ATOM      4  C   UNL d   1       9.785  24.295   6.539  0.00  0.00     0.052 C 
BRANCH   4   5
ATOM      5  C   UNL d   1       9.687  25.666   7.173  0.00  0.00    -0.057 A 
ATOM      6  C   UNL d   1      10.415  26.000   8.322  0.00  0.00     0.007 A 
ATOM      7  C   UNL d   1      10.190  27.223   8.963  0.00  0.00     0.001 A 
ATOM      8  C   UNL d   1       9.254  28.125   8.458  0.00  0.00     0.000 A 
ATOM      9  C   UNL d   1       8.574  27.826   7.283  0.00  0.00     0.001 A 
ATOM     10  C   UNL d   1       8.798  26.608   6.642  0.00  0.00     0.007 A 
ENDBRANCH   4   5
ENDBRANCH   3   4
BRANCH   3  11
ATOM     11  C   UNL d   1      10.115  23.915   4.019  0.00  0.00     0.222 C 
ATOM     12  O   UNL d   1      10.714  23.646   2.977  0.00  0.00    -0.273 OA
ATOM     13  N   UNL d   1       8.732  23.964   4.088  0.00  0.00    -0.350 N 
ATOM     14  H   UNL d   1       8.335  23.998   5.018  0.00  0.00     0.163 HD
BRANCH  13  15
ATOM     15  C   UNL d   1       7.799  23.928   2.962  0.00  0.00     0.147 C 
ATOM     16  C   UNL d   1       7.697  25.287   2.192  0.00  0.00     0.149 C 
ATOM     17  C   UNL d   1       6.955  26.226   3.166  0.00  0.00     0.073 C 
ATOM     18  C   UNL d   1       5.959  25.253   3.728  0.00  0.00    -0.047 A 
ATOM     19  C   UNL d   1       4.752  25.528   4.330  0.00  0.00     0.008 A 
ATOM     20  C   UNL d   1       6.401  23.927   3.530  0.00  0.00    -0.027 A 
ATOM     21  C   UNL d   1       3.929  24.447   4.660  0.00  0.00     0.001 A 
ATOM     22  C   UNL d   1       4.337  23.124   4.404  0.00  0.00     0.001 A 
ATOM     23  C   UNL d   1       5.592  22.855   3.855  0.00  0.00     0.010 A 
BRANCH  16  24
ATOM     24  O   UNL d   1       8.902  25.844   1.720  0.00  0.00    -0.393 OA
ATOM     25  H   UNL d   1       8.690  26.400   0.935  0.00  0.00     0.210 HD
ENDBRANCH  16  24
ENDBRANCH  13  15
ENDBRANCH   3  11
ENDBRANCH   2   3
ENDBRANCH   1   2
BRANCH   1  26
ATOM     26  O   UNL d   1      13.891  25.601   4.620  0.00  0.00    -0.394 OA
ATOM     27  H   UNL d   1      14.573  26.242   4.870  0.00  0.00     0.210 HD
ENDBRANCH   1  26
BRANCH   1  28
ATOM     28  C   UNL d   1      13.315  24.031   6.475  0.00  0.00     0.305 C 
BRANCH  28  29
ATOM     29  N   UNL d   1      14.723  23.562   6.639  0.00  0.00     0.108 N 
ATOM     30  C   UNL d   1      15.500  23.483   5.387  0.00  0.00     0.303 C 
ATOM     31  C   UNL d   1      15.402  22.231   4.483  0.00  0.00     0.303 C 
ATOM     32  N   UNL d   1      15.247  20.941   5.148  0.00  0.00     0.097 N 
ATOM     33  C   UNL d   1      14.402  21.015   6.346  0.00  0.00     0.318 C 
ATOM     34  C   UNL d   1      14.720  22.202   7.298  0.00  0.00     0.342 C 
BRANCH  32  35
ATOM     35  C   UNL d   1      14.868  19.854   4.222  0.00  0.00     0.312 C 
BRANCH  35  36
ATOM     36  C   UNL d   1      16.017  19.105   3.581  0.00  0.00    -0.013 A 
ATOM     37  C   UNL d   1      17.288  19.111   4.150  0.00  0.00     0.125 A 
ATOM     38  N   UNL d   1      18.329  18.377   3.697  0.00  0.00    -0.273 NA
ATOM     39  C   UNL d   1      18.100  17.602   2.616  0.00  0.00     0.116 A 
ATOM     40  C   UNL d   1      16.885  17.542   1.956  0.00  0.00     0.020 A 
ATOM     41  C   UNL d   1      15.837  18.320   2.437  0.00  0.00     0.012 A 
ENDBRANCH  35  36
ENDBRANCH  32  35
BRANCH  34  42
ATOM     42  C   UNL d   1      16.011  21.944   8.133  0.00  0.00     0.253 C 
ATOM     43  N   UNL d   1      16.586  20.708   7.925  0.00  0.00    -0.351 N 
ATOM     44  H   UNL d   1      15.969  20.030   7.481  0.00  0.00     0.163 HD
ATOM     45  O   UNL d   1      16.549  22.845   8.789  0.00  0.00    -0.271 OA
BRANCH  43  46
ATOM     46  C   UNL d   1      17.884  20.278   8.467  0.00  0.00     0.022 C 
ATOM     47  C   UNL d   1      17.741  19.773   9.917  0.00  0.00     0.037 C 
ATOM     48  C   UNL d   1      18.436  19.106   7.634  0.00  0.00     0.037 C 
ATOM     49  C   UNL d   1      18.915  21.423   8.360  0.00  0.00     0.037 C 
ENDBRANCH  43  46
ENDBRANCH  34  42
ENDBRANCH  28  29
ENDBRANCH   1  28
TORSDOF 14
ENDMDL
MODEL 4
REMARK VINA RESULT:    -9.005      1.581      2.202
REMARK INTER + INTRA:         -18.054
REMARK INTER:                 -16.449
REMARK INTRA:                  -1.605
REMARK UNBOUND:                -2.205
REMARK  14 active torsions:
REMARK  status: ('A' for Active; 'I' for Inactive)
REMARK    1  A    between atoms: C_2  and  O_1 
REMARK    2  A    between atoms: C_2  and  C_4 
REMARK    3  A    between atoms: C_2  and  C_3 
REMARK    4  A    between atoms: N_5  and  C_3 
REMARK    5  A    between atoms: C_4  and  C_6 
REMARK    6  A    between atoms: C_6  and  C_10 
REMARK    7  A    between atoms: C_6  and  C_9 
REMARK    8  A    between atoms: C_8  and  C_13 
REMARK       I    between atoms: C_9  and  N_14 
REMARK    9  A    between atoms: C_10  and  C_16 
REMARK       I    between atoms: N_18  and  C_13 
REMARK   10  A    between atoms: N_14  and  C_20 
REMARK   11  A    between atoms: N_17  and  C_23 
REMARK   12  A    between atoms: C_24  and  N_18 
REMARK   13  A    between atoms: C_23  and  C_29 
REMARK   14  A    between atoms: C_25  and  O_33 
ROOT
ATOM      1  C   UNL d   1      15.934  21.920   7.125  0.00  0.00     0.147 C 
ENDROOT
BRANCH   1   2
ATOM      2  C   UNL d   1      16.382  20.577   7.737  0.00  0.00     0.047 C 
BRANCH   2   3
ATOM      3  C   UNL d   1      16.960  19.562   6.715  0.00  0.00     0.084 C 
BRANCH   3   4
ATOM      4  C   UNL d   1      17.016  20.192   5.303  0.00  0.00     0.052 C 
BRANCH   4   5
ATOM      5  C   UNL d   1      16.714  19.210   4.191  0.00  0.00    -0.057 A 
ATOM      6  C   UNL d   1      17.714  18.736   3.334  0.00  0.00     0.007 A 
ATOM      7  C   UNL d   1      17.376  17.945   2.231  0.00  0.00     0.001 A 
ATOM      8  C   UNL d   1      16.045  17.609   1.984  0.00  0.00     0.000 A 
ATOM      9  C   UNL d   1      15.054  18.024   2.866  0.00  0.00     0.001 A 
ATOM     10  C   UNL d   1      15.391  18.811   3.966  0.00  0.00     0.007 A 
ENDBRANCH   4   5
ENDBRANCH   3   4
BRANCH   3  11
ATOM     11  C   UNL d   1      18.317  19.013   7.179  0.00  0.00     0.222 C 
ATOM     12  O   UNL d   1      19.183  19.672   7.754  0.00  0.00    -0.273 OA
ATOM     13  N   UNL d   1      18.482  17.670   6.881  0.00  0.00    -0.350 N 
ATOM     14  H   UNL d   1      17.649  17.174   6.590  0.00  0.00     0.163 HD
BRANCH  13  15
ATOM     15  C   UNL d   1      19.719  16.898   6.988  0.00  0.00     0.147 C 
ATOM     16  C   UNL d   1      19.972  15.952   5.766  0.00  0.00     0.149 C 
ATOM     17  C   UNL d   1      18.911  14.842   5.913  0.00  0.00     0.073 C 
ATOM     18  C   UNL d   1      18.945  14.671   7.403  0.00  0.00    -0.047 A 
ATOM     19  C   UNL d   1      18.552  13.578   8.141  0.00  0.00     0.008 A 
ATOM     20  C   UNL d   1      19.494  15.818   8.018  0.00  0.00    -0.027 A 
ATOM     21  C   UNL d   1      18.798  13.598   9.517  0.00  0.00     0.001 A 
ATOM     22  C   UNL d   1      19.406  14.713  10.125  0.00  0.00     0.001 A 
ATOM     23  C   UNL d   1      19.739  15.844   9.378  0.00  0.00     0.010 A 
BRANCH  16  24
ATOM     24  O   UNL d   1      19.957  16.547   4.488  0.00  0.00    -0.393 OA
ATOM     25  H   UNL d   1      20.874  16.514   4.131  0.00  0.00     0.210 HD
ENDBRANCH  16  24
ENDBRANCH  13  15
ENDBRANCH   3  11
ENDBRANCH   2   3
ENDBRANCH   1   2
BRANCH   1  26
ATOM     26  O   UNL d   1      16.599  22.934   7.885  0.00  0.00    -0.394 OA
ATOM     27  H   UNL d   1      17.299  23.287   7.317  0.00  0.00     0.210 HD
ENDBRANCH   1  26
BRANCH   1  28
ATOM     28  C   UNL d   1      14.378  22.064   7.146  0.00  0.00     0.305 C 
BRANCH  28  29
ATOM     29  N   UNL d   1      13.724  22.831   6.045  0.00  0.00     0.108 N 
ATOM     30  C   UNL d   1      13.855  24.298   6.148  0.00  0.00     0.303 C 
ATOM     31  C   UNL d   1      12.872  25.110   7.024  0.00  0.00     0.303 C 
ATOM     32  N   UNL d   1      11.487  24.650   7.073  0.00  0.00     0.097 N 
ATOM     33  C   UNL d   1      11.373  23.185   7.056  0.00  0.00     0.318 C 
ATOM     34  C   UNL d   1      12.257  22.474   5.993  0.00  0.00     0.342 C 
BRANCH  32  35
ATOM     35  C   UNL d   1      10.701  25.292   8.147  0.00  0.00     0.312 C 
BRANCH  35  36
ATOM     36  C   UNL d   1       9.684  26.316   7.693  0.00  0.00    -0.013 A 
ATOM     37  C   UNL d   1       9.688  26.811   6.391  0.00  0.00     0.125 A 
ATOM     38  N   UNL d   1       8.746  27.638   5.886  0.00  0.00    -0.273 NA
ATOM     39  C   UNL d   1       7.749  28.002   6.720  0.00  0.00     0.116 A 
ATOM     40  C   UNL d   1       7.662  27.594   8.040  0.00  0.00     0.020 A 
ATOM     41  C   UNL d   1       8.654  26.754   8.534  0.00  0.00     0.012 A 
ENDBRANCH  35  36
ENDBRANCH  32  35
BRANCH  34  42
ATOM     42  C   UNL d   1      11.662  22.613   4.559  0.00  0.00     0.253 C 
ATOM     43  N   UNL d   1      10.326  22.951   4.527  0.00  0.00    -0.351 N 
ATOM     44  H   UNL d   1       9.836  22.800   5.407  0.00  0.00     0.163 HD
ATOM     45  O   UNL d   1      12.383  22.586   3.554  0.00  0.00    -0.271 OA
BRANCH  43  46
ATOM     46  C   UNL d   1       9.569  23.292   3.312  0.00  0.00     0.022 C 
ATOM     47  C   UNL d   1      10.210  24.485   2.575  0.00  0.00     0.037 C 
ATOM     48  C   UNL d   1       9.582  22.100   2.337  0.00  0.00     0.037 C 
ATOM     49  C   UNL d   1       8.090  23.564   3.661  0.00  0.00     0.037 C 
ENDBRANCH  43  46
ENDBRANCH  34  42
ENDBRANCH  28  29
ENDBRANCH   1  28
TORSDOF 14
ENDMDL
MODEL 5
REMARK VINA RESULT:    -8.999      4.275      6.623
REMARK INTER + INTRA:         -18.043
REMARK INTER:                 -17.394
REMARK INTRA:                  -0.649
REMARK UNBOUND:                -2.205
REMARK  14 active torsions:
REMARK  status: ('A' for Active; 'I' for Inactive)
REMARK    1  A    between atoms: C_2  and  O_1 
REMARK    2  A    between atoms: C_2  and  C_4 
REMARK    3  A    between atoms: C_2  and  C_3 
REMARK    4  A    between atoms: N_5  and  C_3 
REMARK    5  A    between atoms: C_4  and  C_6 
REMARK    6  A    between atoms: C_6  and  C_10 
REMARK    7  A    between atoms: C_6  and  C_9 
REMARK    8  A    between atoms: C_8  and  C_13 
REMARK       I    between atoms: C_9  and  N_14 
REMARK    9  A    between atoms: C_10  and  C_16 
REMARK       I    between atoms: N_18  and  C_13 
REMARK   10  A    between atoms: N_14  and  C_20 
REMARK   11  A    between atoms: N_17  and  C_23 
REMARK   12  A    between atoms: C_24  and  N_18 
REMARK   13  A    between atoms: C_23  and  C_29 
REMARK   14  A    between atoms: C_25  and  O_33 
ROOT
ATOM      1  C   UNL d   1      11.885  22.738   2.930  0.00  0.00     0.147 C 
ENDROOT
BRANCH   1   2
ATOM      2  C   UNL d   1      12.934  23.100   4.001  0.00  0.00     0.047 C 
BRANCH   2   3
ATOM      3  C   UNL d   1      13.399  21.906   4.877  0.00  0.00     0.084 C 
BRANCH   3   4
ATOM      4  C   UNL d   1      14.843  21.494   4.501  0.00  0.00     0.052 C 
BRANCH   4   5
ATOM      5  C   UNL d   1      14.954  20.066   4.011  0.00  0.00    -0.057 A 
ATOM      6  C   UNL d   1      15.136  18.995   4.895  0.00  0.00     0.007 A 
ATOM      7  C   UNL d   1      15.379  17.709   4.399  0.00  0.00     0.001 A 
ATOM      8  C   UNL d   1      15.428  17.480   3.025  0.00  0.00     0.000 A 
ATOM      9  C   UNL d   1      15.186  18.527   2.142  0.00  0.00     0.001 A 
ATOM     10  C   UNL d   1      14.941  19.807   2.635  0.00  0.00     0.007 A 
ENDBRANCH   4   5
ENDBRANCH   3   4
BRANCH   3  11
ATOM     11  C   UNL d   1      13.236  22.214   6.373  0.00  0.00     0.222 C 
ATOM     12  O   UNL d   1      12.258  22.769   6.874  0.00  0.00    -0.273 OA
ATOM     13  N   UNL d   1      14.321  21.799   7.127  0.00  0.00    -0.350 N 
ATOM     14  H   UNL d   1      14.977  21.185   6.661  0.00  0.00     0.163 HD
BRANCH  13  15
ATOM     15  C   UNL d   1      14.585  22.122   8.529  0.00  0.00     0.147 C 
ATOM     16  C   UNL d   1      15.029  23.606   8.754  0.00  0.00     0.149 C 
ATOM     17  C   UNL d   1      16.449  23.678   8.157  0.00  0.00     0.073 C 
ATOM     18  C   UNL d   1      16.967  22.342   8.604  0.00  0.00    -0.047 A 
ATOM     19  C   UNL d   1      18.277  21.949   8.760  0.00  0.00     0.008 A 
ATOM     20  C   UNL d   1      15.895  21.474   8.906  0.00  0.00    -0.027 A 
ATOM     21  C   UNL d   1      18.517  20.688   9.316  0.00  0.00     0.001 A 
ATOM     22  C   UNL d   1      17.450  19.845   9.680  0.00  0.00     0.001 A 
ATOM     23  C   UNL d   1      16.126  20.227   9.455  0.00  0.00     0.010 A 
BRANCH  16  24
ATOM     24  O   UNL d   1      14.179  24.609   8.246  0.00  0.00    -0.393 OA
ATOM     25  H   UNL d   1      14.701  25.442   8.183  0.00  0.00     0.210 HD
ENDBRANCH  16  24
ENDBRANCH  13  15
ENDBRANCH   3  11
ENDBRANCH   2   3
ENDBRANCH   1   2
BRANCH   1  26
ATOM     26  O   UNL d   1      11.912  23.811   1.983  0.00  0.00    -0.394 OA
ATOM     27  H   UNL d   1      11.367  23.529   1.234  0.00  0.00     0.210 HD
ENDBRANCH   1  26
BRANCH   1  28
ATOM     28  C   UNL d   1      10.473  22.522   3.566  0.00  0.00     0.305 C 
BRANCH  28  29
ATOM     29  N   UNL d   1       9.343  23.367   3.080  0.00  0.00     0.108 N 
ATOM     30  C   UNL d   1       9.739  24.684   2.542  0.00  0.00     0.303 C 
ATOM     31  C   UNL d   1       9.961  25.883   3.494  0.00  0.00     0.303 C 
ATOM     32  N   UNL d   1       9.089  25.976   4.661  0.00  0.00     0.097 N 
ATOM     33  C   UNL d   1       8.769  24.665   5.239  0.00  0.00     0.318 C 
ATOM     34  C   UNL d   1       8.358  23.578   4.207  0.00  0.00     0.342 C 
BRANCH  32  35
ATOM     35  C   UNL d   1       9.556  26.964   5.655  0.00  0.00     0.312 C 
BRANCH  35  36
ATOM     36  C   UNL d   1       9.773  26.434   7.056  0.00  0.00    -0.013 A 
ATOM     37  C   UNL d   1      11.041  26.074   7.503  0.00  0.00     0.125 A 
ATOM     38  N   UNL d   1      11.325  25.701   8.772  0.00  0.00    -0.273 NA
ATOM     39  C   UNL d   1      10.294  25.676   9.641  0.00  0.00     0.116 A 
ATOM     40  C   UNL d   1       8.990  25.986   9.298  0.00  0.00     0.020 A 
ATOM     41  C   UNL d   1       8.726  26.352   7.982  0.00  0.00     0.012 A 
ENDBRANCH  35  36
ENDBRANCH  32  35
BRANCH  34  42
ATOM     42  C   UNL d   1       6.902  23.790   3.692  0.00  0.00     0.253 C 
ATOM     43  N   UNL d   1       6.002  22.837   4.121  0.00  0.00    -0.351 N 
ATOM     44  H   UNL d   1       6.433  21.987   4.479  0.00  0.00     0.163 HD
ATOM     45  O   UNL d   1       6.571  24.820   3.092  0.00  0.00    -0.271 OA
BRANCH  43  46
ATOM     46  C   UNL d   1       4.548  22.892   3.907  0.00  0.00     0.022 C 
ATOM     47  C   UNL d   1       3.878  21.560   4.300  0.00  0.00     0.037 C 
ATOM     48  C   UNL d   1       3.929  23.988   4.796  0.00  0.00     0.037 C 
ATOM     49  C   UNL d   1       4.236  23.278   2.445  0.00  0.00     0.037 C 
ENDBRANCH  43  46
ENDBRANCH  34  42
ENDBRANCH  28  29
ENDBRANCH   1  28
TORSDOF 14
ENDMDL
MODEL 6
REMARK VINA RESULT:    -8.710      3.438     11.258
REMARK INTER + INTRA:         -17.535
REMARK INTER:                 -15.589
REMARK INTRA:                  -1.946
REMARK UNBOUND:                -2.205
REMARK  14 active torsions:
REMARK  status: ('A' for Active; 'I' for Inactive)
REMARK    1  A    between atoms: C_2  and  O_1 
REMARK    2  A    between atoms: C_2  and  C_4 
REMARK    3  A    between atoms: C_2  and  C_3 
REMARK    4  A    between atoms: N_5  and  C_3 
REMARK    5  A    between atoms: C_4  and  C_6 
REMARK    6  A    between atoms: C_6  and  C_10 
REMARK    7  A    between atoms: C_6  and  C_9 
REMARK    8  A    between atoms: C_8  and  C_13 
REMARK       I    between atoms: C_9  and  N_14 
REMARK    9  A    between atoms: C_10  and  C_16 
REMARK       I    between atoms: N_18  and  C_13 
REMARK   10  A    between atoms: N_14  and  C_20 
REMARK   11  A    between atoms: N_17  and  C_23 
REMARK   12  A    between atoms: C_24  and  N_18 
REMARK   13  A    between atoms: C_23  and  C_29 
REMARK   14  A    between atoms: C_25  and  O_33 
ROOT
ATOM      1  C   UNL d   1      13.133  25.335   5.602  0.00  0.00     0.147 C 
ENDROOT
BRANCH   1   2
ATOM      2  C   UNL d   1      11.903  26.175   6.000  0.00  0.00     0.047 C 
BRANCH   2   3
ATOM      3  C   UNL d   1      11.057  25.575   7.154  0.00  0.00     0.084 C 
BRANCH   3   4
ATOM      4  C   UNL d   1      10.256  26.689   7.870  0.00  0.00     0.052 C 
BRANCH   4   5
ATOM      5  C   UNL d   1       8.922  26.988   7.218  0.00  0.00    -0.057 A 
ATOM      6  C   UNL d   1       7.716  26.862   7.916  0.00  0.00     0.007 A 
ATOM      7  C   UNL d   1       6.497  27.005   7.243  0.00  0.00     0.001 A 
ATOM      8  C   UNL d   1       6.473  27.289   5.878  0.00  0.00     0.000 A 
ATOM      9  C   UNL d   1       7.668  27.477   5.192  0.00  0.00     0.001 A 
ATOM     10  C   UNL d   1       8.882  27.336   5.862  0.00  0.00     0.007 A 
ENDBRANCH   4   5
ENDBRANCH   3   4
BRANCH   3  11
ATOM     11  C   UNL d   1      10.168  24.426   6.655  0.00  0.00     0.222 C 
ATOM     12  O   UNL d   1       9.608  23.604   7.380  0.00  0.00    -0.273 OA
ATOM     13  N   UNL d   1      10.053  24.397   5.275  0.00  0.00    -0.350 N 
ATOM     14  H   UNL d   1      10.384  25.219   4.784  0.00  0.00     0.163 HD
BRANCH  13  15
ATOM     15  C   UNL d   1       9.467  23.327   4.469  0.00  0.00     0.147 C 
ATOM     16  C   UNL d   1      10.345  22.921   3.238  0.00  0.00     0.149 C 
ATOM     17  C   UNL d   1      10.231  24.119   2.273  0.00  0.00     0.073 C 
ATOM     18  C   UNL d   1       8.782  24.452   2.471  0.00  0.00    -0.047 A 
ATOM     19  C   UNL d   1       7.945  25.140   1.621  0.00  0.00     0.008 A 
ATOM     20  C   UNL d   1       8.317  23.919   3.693  0.00  0.00    -0.027 A 
ATOM     21  C   UNL d   1       6.591  25.217   1.962  0.00  0.00     0.001 A 
ATOM     22  C   UNL d   1       6.111  24.630   3.147  0.00  0.00     0.001 A 
ATOM     23  C   UNL d   1       6.980  23.993   4.035  0.00  0.00     0.010 A 
BRANCH  16  24
ATOM     24  O   UNL d   1      11.683  22.564   3.500  0.00  0.00    -0.393 OA
ATOM     25  H   UNL d   1      12.215  23.392   3.527  0.00  0.00     0.210 HD
ENDBRANCH  16  24
ENDBRANCH  13  15
ENDBRANCH   3  11
ENDBRANCH   2   3
ENDBRANCH   1   2
BRANCH   1  26
ATOM     26  O   UNL d   1      13.000  25.093   4.198  0.00  0.00    -0.394 OA
ATOM     27  H   UNL d   1      13.842  24.715   3.904  0.00  0.00     0.210 HD
ENDBRANCH   1  26
BRANCH   1  28
ATOM     28  C   UNL d   1      13.219  24.018   6.442  0.00  0.00     0.305 C 
BRANCH  28  29
ATOM     29  N   UNL d   1      14.569  23.457   6.739  0.00  0.00     0.108 N 
ATOM     30  C   UNL d   1      15.498  23.434   5.591  0.00  0.00     0.303 C 
ATOM     31  C   UNL d   1      15.458  22.267   4.577  0.00  0.00     0.303 C 
ATOM     32  N   UNL d   1      15.158  20.938   5.102  0.00  0.00     0.097 N 
ATOM     33  C   UNL d   1      14.169  20.965   6.188  0.00  0.00     0.318 C 
ATOM     34  C   UNL d   1      14.418  22.051   7.272  0.00  0.00     0.342 C 
BRANCH  32  35
ATOM     35  C   UNL d   1      14.851  19.953   4.045  0.00  0.00     0.312 C 
BRANCH  35  36
ATOM     36  C   UNL d   1      16.036  19.191   3.492  0.00  0.00    -0.013 A 
ATOM     37  C   UNL d   1      17.257  19.171   4.161  0.00  0.00     0.125 A 
ATOM     38  N   UNL d   1      18.320  18.424   3.786  0.00  0.00    -0.273 NA
ATOM     39  C   UNL d   1      18.167  17.663   2.682  0.00  0.00     0.116 A 
ATOM     40  C   UNL d   1      17.008  17.629   1.926  0.00  0.00     0.020 A 
ATOM     41  C   UNL d   1      15.937  18.419   2.329  0.00  0.00     0.012 A 
ENDBRANCH  35  36
ENDBRANCH  32  35
BRANCH  34  42
ATOM     42  C   UNL d   1      15.576  21.653   8.235  0.00  0.00     0.253 C 
ATOM     43  N   UNL d   1      16.449  20.718   7.720  0.00  0.00    -0.351 N 
ATOM     44  H   UNL d   1      16.090  20.211   6.913  0.00  0.00     0.163 HD
ATOM     45  O   UNL d   1      15.773  22.259   9.296  0.00  0.00    -0.271 OA
BRANCH  43  46
ATOM     46  C   UNL d   1      17.704  20.291   8.359  0.00  0.00     0.022 C 
ATOM     47  C   UNL d   1      17.428  19.542   9.678  0.00  0.00     0.037 C 
ATOM     48  C   UNL d   1      18.455  19.315   7.434  0.00  0.00     0.037 C 
ATOM     49  C   UNL d   1      18.635  21.504   8.574  0.00  0.00     0.037 C 
ENDBRANCH  43  46
ENDBRANCH  34  42
ENDBRANCH  28  29
ENDBRANCH   1  28
TORSDOF 14
ENDMDL
MODEL 7
REMARK VINA RESULT:    -8.573      1.838      3.526
REMARK INTER + INTRA:         -17.293
REMARK INTER:                 -15.846
REMARK INTRA:                  -1.447
REMARK UNBOUND:                -2.205
REMARK  14 active torsions:
REMARK  status: ('A' for Active; 'I' for Inactive)
REMARK    1  A    between atoms: C_2  and  O_1 
REMARK    2  A    between atoms: C_2  and  C_4 
REMARK    3  A    between atoms: C_2  and  C_3 
REMARK    4  A    between atoms: N_5  and  C_3 
REMARK    5  A    between atoms: C_4  and  C_6 
REMARK    6  A    between atoms: C_6  and  C_10 
REMARK    7  A    between atoms: C_6  and  C_9 
REMARK    8  A    between atoms: C_8  and  C_13 
REMARK       I    between atoms: C_9  and  N_14 
REMARK    9  A    between atoms: C_10  and  C_16 
REMARK       I    between atoms: N_18  and  C_13 
REMARK   10  A    between atoms: N_14  and  C_20 
REMARK   11  A    between atoms: N_17  and  C_23 
REMARK   12  A    between atoms: C_24  and  N_18 
REMARK   13  A    between atoms: C_23  and  C_29 
REMARK   14  A    between atoms: C_25  and  O_33 
ROOT
ATOM      1  C   UNL d   1      16.083  19.458   5.557  0.00  0.00     0.147 C 
ENDROOT
BRANCH   1   2
ATOM      2  C   UNL d   1      17.382  20.243   5.831  0.00  0.00     0.047 C 
BRANCH   2   3
ATOM      3  C   UNL d   1      18.468  19.447   6.602  0.00  0.00     0.084 C 
BRANCH   3   4
ATOM      4  C   UNL d   1      18.065  19.286   8.088  0.00  0.00     0.052 C 
BRANCH   4   5
ATOM      5  C   UNL d   1      17.320  20.481   8.643  0.00  0.00    -0.057 A 
ATOM      6  C   UNL d   1      16.099  20.340   9.315  0.00  0.00     0.007 A 
ATOM      7  C   UNL d   1      15.368  21.474   9.687  0.00  0.00     0.001 A 
ATOM      8  C   UNL d   1      15.854  22.751   9.405  0.00  0.00     0.000 A 
ATOM      9  C   UNL d   1      17.094  22.898   8.795  0.00  0.00     0.001 A 
ATOM     10  C   UNL d   1      17.824  21.769   8.426  0.00  0.00     0.007 A 
ENDBRANCH   4   5
ENDBRANCH   3   4
BRANCH   3  11
ATOM     11  C   UNL d   1      18.770  18.106   5.916  0.00  0.00     0.222 C 
ATOM     12  O   UNL d   1      18.762  17.921   4.699  0.00  0.00    -0.273 OA
ATOM     13  N   UNL d   1      19.057  17.095   6.819  0.00  0.00    -0.350 N 
ATOM     14  H   UNL d   1      19.229  17.387   7.773  0.00  0.00     0.163 HD
BRANCH  13  15
ATOM     15  C   UNL d   1      19.177  15.668   6.523  0.00  0.00     0.147 C 
ATOM     16  C   UNL d   1      19.123  14.760   7.797  0.00  0.00     0.149 C 
ATOM     17  C   UNL d   1      20.459  15.030   8.518  0.00  0.00     0.073 C 
ATOM     18  C   UNL d   1      21.365  15.121   7.325  0.00  0.00    -0.047 A 
ATOM     19  C   UNL d   1      22.728  14.939   7.278  0.00  0.00     0.008 A 
ATOM     20  C   UNL d   1      20.617  15.398   6.160  0.00  0.00    -0.027 A 
ATOM     21  C   UNL d   1      23.344  14.945   6.022  0.00  0.00     0.001 A 
ATOM     22  C   UNL d   1      22.591  15.156   4.851  0.00  0.00     0.001 A 
ATOM     23  C   UNL d   1      21.219  15.408   4.916  0.00  0.00     0.010 A 
BRANCH  16  24
ATOM     24  O   UNL d   1      18.010  14.920   8.646  0.00  0.00    -0.393 OA
ATOM     25  H   UNL d   1      17.252  14.436   8.243  0.00  0.00     0.210 HD
ENDBRANCH  16  24
ENDBRANCH  13  15
ENDBRANCH   3  11
ENDBRANCH   2   3
ENDBRANCH   1   2
BRANCH   1  26
ATOM     26  O   UNL d   1      16.100  19.156   4.159  0.00  0.00    -0.394 OA
ATOM     27  H   UNL d   1      16.977  18.795   3.966  0.00  0.00     0.210 HD
ENDBRANCH   1  26
BRANCH   1  28
ATOM     28  C   UNL d   1      14.822  20.275   5.989  0.00  0.00     0.305 C 
BRANCH  28  29
ATOM     29  N   UNL d   1      14.327  21.345   5.075  0.00  0.00     0.108 N 
ATOM     30  C   UNL d   1      15.084  22.611   5.134  0.00  0.00     0.303 C 
ATOM     31  C   UNL d   1      14.759  23.667   6.217  0.00  0.00     0.303 C 
ATOM     32  N   UNL d   1      13.358  23.814   6.604  0.00  0.00     0.097 N 
ATOM     33  C   UNL d   1      12.635  22.536   6.623  0.00  0.00     0.318 C 
ATOM     34  C   UNL d   1      12.875  21.631   5.382  0.00  0.00     0.342 C 
BRANCH  32  35
ATOM     35  C   UNL d   1      13.178  24.616   7.832  0.00  0.00     0.312 C 
BRANCH  35  36
ATOM     36  C   UNL d   1      11.961  25.515   7.856  0.00  0.00    -0.013 A 
ATOM     37  C   UNL d   1      11.266  25.821   6.689  0.00  0.00     0.125 A 
ATOM     38  N   UNL d   1      10.110  26.522   6.651  0.00  0.00    -0.273 NA
ATOM     39  C   UNL d   1       9.622  26.951   7.834  0.00  0.00     0.116 A 
ATOM     40  C   UNL d   1      10.245  26.728   9.050  0.00  0.00     0.020 A 
ATOM     41  C   UNL d   1      11.440  26.016   9.055  0.00  0.00     0.012 A 
ENDBRANCH  35  36
ENDBRANCH  32  35
BRANCH  34  42
ATOM     42  C   UNL d   1      12.093  22.140   4.134  0.00  0.00     0.253 C 
ATOM     43  N   UNL d   1      10.793  22.521   4.394  0.00  0.00    -0.351 N 
ATOM     44  H   UNL d   1      10.425  22.174   5.278  0.00  0.00     0.163 HD
ATOM     45  O   UNL d   1      12.658  22.338   3.052  0.00  0.00    -0.271 OA
BRANCH  43  46
ATOM     46  C   UNL d   1       9.896  23.177   3.430  0.00  0.00     0.022 C 
ATOM     47  C   UNL d   1       9.503  22.214   2.292  0.00  0.00     0.037 C 
ATOM     48  C   UNL d   1       8.593  23.601   4.133  0.00  0.00     0.037 C 
ATOM     49  C   UNL d   1      10.547  24.468   2.887  0.00  0.00     0.037 C 
ENDBRANCH  43  46
ENDBRANCH  34  42
ENDBRANCH  28  29
ENDBRANCH   1  28
TORSDOF 14
ENDMDL
MODEL 8
REMARK VINA RESULT:    -8.389      3.613     11.269
REMARK INTER + INTRA:         -16.969
REMARK INTER:                 -14.788
REMARK INTRA:                  -2.181
REMARK UNBOUND:                -2.205
REMARK  14 active torsions:
REMARK  status: ('A' for Active; 'I' for Inactive)
REMARK    1  A    between atoms: C_2  and  O_1 
REMARK    2  A    between atoms: C_2  and  C_4 
REMARK    3  A    between atoms: C_2  and  C_3 
REMARK    4  A    between atoms: N_5  and  C_3 
REMARK    5  A    between atoms: C_4  and  C_6 
REMARK    6  A    between atoms: C_6  and  C_10 
REMARK    7  A    between atoms: C_6  and  C_9 
REMARK    8  A    between atoms: C_8  and  C_13 
REMARK       I    between atoms: C_9  and  N_14 
REMARK    9  A    between atoms: C_10  and  C_16 
REMARK       I    between atoms: N_18  and  C_13 
REMARK   10  A    between atoms: N_14  and  C_20 
REMARK   11  A    between atoms: N_17  and  C_23 
REMARK   12  A    between atoms: C_24  and  N_18 
REMARK   13  A    between atoms: C_23  and  C_29 
REMARK   14  A    between atoms: C_25  and  O_33 
ROOT
ATOM      1  C   UNL d   1      12.282  24.791   3.416  0.00  0.00     0.147 C 
ENDROOT
BRANCH   1   2
ATOM      2  C   UNL d   1      11.035  25.454   4.035  0.00  0.00     0.047 C 
BRANCH   2   3
ATOM      3  C   UNL d   1      10.360  24.633   5.165  0.00  0.00     0.084 C 
BRANCH   3   4
ATOM      4  C   UNL d   1       9.499  25.555   6.061  0.00  0.00     0.052 C 
BRANCH   4   5
ATOM      5  C   UNL d   1      10.205  25.999   7.324  0.00  0.00    -0.057 A 
ATOM      6  C   UNL d   1       9.722  27.056   8.106  0.00  0.00     0.007 A 
ATOM      7  C   UNL d   1      10.476  27.533   9.184  0.00  0.00     0.001 A 
ATOM      8  C   UNL d   1      11.704  26.952   9.498  0.00  0.00     0.000 A 
ATOM      9  C   UNL d   1      12.159  25.862   8.765  0.00  0.00     0.001 A 
ATOM     10  C   UNL d   1      11.408  25.385   7.692  0.00  0.00     0.007 A 
ENDBRANCH   4   5
ENDBRANCH   3   4
BRANCH   3  11
ATOM     11  C   UNL d   1       9.570  23.445   4.596  0.00  0.00     0.222 C 
ATOM     12  O   UNL d   1      10.022  22.311   4.435  0.00  0.00    -0.273 OA
ATOM     13  N   UNL d   1       8.265  23.776   4.270  0.00  0.00    -0.350 N 
ATOM     14  H   UNL d   1       7.932  24.666   4.617  0.00  0.00     0.163 HD
BRANCH  13  15
ATOM     15  C   UNL d   1       7.317  22.954   3.518  0.00  0.00     0.147 C 
ATOM     16  C   UNL d   1       7.649  22.855   1.992  0.00  0.00     0.149 C 
ATOM     17  C   UNL d   1       7.333  24.259   1.438  0.00  0.00     0.073 C 
ATOM     18  C   UNL d   1       6.094  24.559   2.231  0.00  0.00    -0.047 A 
ATOM     19  C   UNL d   1       5.092  25.454   1.933  0.00  0.00     0.008 A 
ATOM     20  C   UNL d   1       6.038  23.743   3.382  0.00  0.00    -0.027 A 
ATOM     21  C   UNL d   1       3.965  25.468   2.760  0.00  0.00     0.001 A 
ATOM     22  C   UNL d   1       3.875  24.610   3.872  0.00  0.00     0.001 A 
ATOM     23  C   UNL d   1       4.927  23.754   4.204  0.00  0.00     0.010 A 
BRANCH  16  24
ATOM     24  O   UNL d   1       8.945  22.419   1.649  0.00  0.00    -0.393 OA
ATOM     25  H   UNL d   1       9.587  23.074   2.007  0.00  0.00     0.210 HD
ENDBRANCH  16  24
ENDBRANCH  13  15
ENDBRANCH   3  11
ENDBRANCH   2   3
ENDBRANCH   1   2
BRANCH   1  26
ATOM     26  O   UNL d   1      11.788  23.754   2.564  0.00  0.00    -0.394 OA
ATOM     27  H   UNL d   1      12.069  23.980   1.665  0.00  0.00     0.210 HD
ENDBRANCH   1  26
BRANCH   1  28
ATOM     28  C   UNL d   1      13.252  24.261   4.522  0.00  0.00     0.305 C 
BRANCH  28  29
ATOM     29  N   UNL d   1      13.467  22.788   4.625  0.00  0.00     0.108 N 
ATOM     30  C   UNL d   1      12.981  22.176   5.878  0.00  0.00     0.303 C 
ATOM     31  C   UNL d   1      13.864  22.190   7.148  0.00  0.00     0.303 C 
ATOM     32  N   UNL d   1      15.305  22.050   6.959  0.00  0.00     0.097 N 
ATOM     33  C   UNL d   1      15.791  22.734   5.753  0.00  0.00     0.318 C 
ATOM     34  C   UNL d   1      14.941  22.488   4.476  0.00  0.00     0.342 C 
BRANCH  32  35
ATOM     35  C   UNL d   1      16.083  22.368   8.175  0.00  0.00     0.312 C 
BRANCH  35  36
ATOM     36  C   UNL d   1      16.891  21.228   8.755  0.00  0.00    -0.013 A 
ATOM     37  C   UNL d   1      18.278  21.191   8.634  0.00  0.00     0.125 A 
ATOM     38  N   UNL d   1      19.070  20.266   9.222  0.00  0.00    -0.273 NA
ATOM     39  C   UNL d   1      18.453  19.321   9.961  0.00  0.00     0.116 A 
ATOM     40  C   UNL d   1      17.081  19.246  10.125  0.00  0.00     0.020 A 
ATOM     41  C   UNL d   1      16.291  20.203   9.496  0.00  0.00     0.012 A 
ENDBRANCH  35  36
ENDBRANCH  32  35
BRANCH  34  42
ATOM     42  C   UNL d   1      15.201  21.076   3.870  0.00  0.00     0.253 C 
ATOM     43  N   UNL d   1      16.171  20.346   4.524  0.00  0.00    -0.351 N 
ATOM     44  H   UNL d   1      16.775  20.901   5.127  0.00  0.00     0.163 HD
ATOM     45  O   UNL d   1      14.473  20.605   2.988  0.00  0.00    -0.271 OA
BRANCH  43  46
ATOM     46  C   UNL d   1      16.496  18.937   4.252  0.00  0.00     0.022 C 
ATOM     47  C   UNL d   1      16.712  18.698   2.744  0.00  0.00     0.037 C 
ATOM     48  C   UNL d   1      17.809  18.557   4.962  0.00  0.00     0.037 C 
ATOM     49  C   UNL d   1      15.399  18.015   4.825  0.00  0.00     0.037 C 
ENDBRANCH  43  46
ENDBRANCH  34  42
ENDBRANCH  28  29
ENDBRANCH   1  28
TORSDOF 14
ENDMDL
MODEL 9
REMARK VINA RESULT:    -8.333      2.969     10.803
REMARK INTER + INTRA:         -16.872
REMARK INTER:                 -13.994
REMARK INTRA:                  -2.878
REMARK UNBOUND:                -2.205
REMARK  14 active torsions:
REMARK  status: ('A' for Active; 'I' for Inactive)
REMARK    1  A    between atoms: C_2  and  O_1 
REMARK    2  A    between atoms: C_2  and  C_4 
REMARK    3  A    between atoms: C_2  and  C_3 
REMARK    4  A    between atoms: N_5  and  C_3 
REMARK    5  A    between atoms: C_4  and  C_6 
REMARK    6  A    between atoms: C_6  and  C_10 
REMARK    7  A    between atoms: C_6  and  C_9 
REMARK    8  A    between atoms: C_8  and  C_13 
REMARK       I    between atoms: C_9  and  N_14 
REMARK    9  A    between atoms: C_10  and  C_16 
REMARK       I    between atoms: N_18  and  C_13 
REMARK   10  A    between atoms: N_14  and  C_20 
REMARK   11  A    between atoms: N_17  and  C_23 
REMARK   12  A    between atoms: C_24  and  N_18 
REMARK   13  A    between atoms: C_23  and  C_29 
REMARK   14  A    between atoms: C_25  and  O_33 
ROOT
ATOM      1  C   UNL d   1      13.636  25.125   5.361  0.00  0.00     0.147 C 
ENDROOT
BRANCH   1   2
ATOM      2  C   UNL d   1      12.377  25.864   5.858  0.00  0.00     0.047 C 
BRANCH   2   3
ATOM      3  C   UNL d   1      11.658  25.184   7.053  0.00  0.00     0.084 C 
BRANCH   3   4
ATOM      4  C   UNL d   1      11.017  26.249   7.974  0.00  0.00     0.052 C 
BRANCH   4   5
ATOM      5  C   UNL d   1       9.596  26.601   7.592  0.00  0.00    -0.057 A 
ATOM      6  C   UNL d   1       9.295  27.243   6.384  0.00  0.00     0.007 A 
ATOM      7  C   UNL d   1       7.991  27.682   6.129  0.00  0.00     0.001 A 
ATOM      8  C   UNL d   1       6.979  27.473   7.065  0.00  0.00     0.000 A 
ATOM      9  C   UNL d   1       7.258  26.781   8.239  0.00  0.00     0.001 A 
ATOM     10  C   UNL d   1       8.556  26.342   8.493  0.00  0.00     0.007 A 
ENDBRANCH   4   5
ENDBRANCH   3   4
BRANCH   3  11
ATOM     11  C   UNL d   1      10.653  24.127   6.572  0.00  0.00     0.222 C 
ATOM     12  O   UNL d   1      10.107  23.294   7.296  0.00  0.00    -0.273 OA
ATOM     13  N   UNL d   1      10.411  24.197   5.210  0.00  0.00    -0.350 N 
ATOM     14  H   UNL d   1      10.750  25.028   4.741  0.00  0.00     0.163 HD
BRANCH  13  15
ATOM     15  C   UNL d   1       9.684  23.221   4.400  0.00  0.00     0.147 C 
ATOM     16  C   UNL d   1      10.495  22.708   3.163  0.00  0.00     0.149 C 
ATOM     17  C   UNL d   1      10.541  23.917   2.206  0.00  0.00     0.073 C 
ATOM     18  C   UNL d   1       9.150  24.441   2.412  0.00  0.00    -0.047 A 
ATOM     19  C   UNL d   1       8.412  25.241   1.569  0.00  0.00     0.008 A 
ATOM     20  C   UNL d   1       8.621  23.968   3.632  0.00  0.00    -0.027 A 
ATOM     21  C   UNL d   1       7.082  25.499   1.915  0.00  0.00     0.001 A 
ATOM     22  C   UNL d   1       6.530  24.974   3.099  0.00  0.00     0.001 A 
ATOM     23  C   UNL d   1       7.308  24.220   3.980  0.00  0.00     0.010 A 
BRANCH  16  24
ATOM     24  O   UNL d   1      11.774  22.172   3.418  0.00  0.00    -0.393 OA
ATOM     25  H   UNL d   1      11.654  21.252   3.745  0.00  0.00     0.210 HD
ENDBRANCH  16  24
ENDBRANCH  13  15
ENDBRANCH   3  11
ENDBRANCH   2   3
ENDBRANCH   1   2
BRANCH   1  26
ATOM     26  O   UNL d   1      13.264  24.512   4.123  0.00  0.00    -0.394 OA
ATOM     27  H   UNL d   1      12.428  24.921   3.856  0.00  0.00     0.210 HD
ENDBRANCH   1  26
BRANCH   1  28
ATOM     28  C   UNL d   1      14.147  24.095   6.422  0.00  0.00     0.305 C 
BRANCH  28  29
ATOM     29  N   UNL d   1      14.083  22.643   6.083  0.00  0.00     0.108 N 
ATOM     30  C   UNL d   1      13.733  21.758   7.212  0.00  0.00     0.303 C 
ATOM     31  C   UNL d   1      14.825  21.275   8.194  0.00  0.00     0.303 C 
ATOM     32  N   UNL d   1      16.148  21.004   7.638  0.00  0.00     0.097 N 
ATOM     33  C   UNL d   1      16.522  21.943   6.573  0.00  0.00     0.318 C 
ATOM     34  C   UNL d   1      15.414  22.206   5.515  0.00  0.00     0.342 C 
BRANCH  32  35
ATOM     35  C   UNL d   1      17.189  20.838   8.674  0.00  0.00     0.312 C 
BRANCH  35  36
ATOM     36  C   UNL d   1      17.774  19.448   8.801  0.00  0.00    -0.013 A 
ATOM     37  C   UNL d   1      18.425  18.839   7.732  0.00  0.00     0.125 A 
ATOM     38  N   UNL d   1      19.067  17.651   7.807  0.00  0.00    -0.273 NA
ATOM     39  C   UNL d   1      19.054  17.030   9.005  0.00  0.00     0.116 A 
ATOM     40  C   UNL d   1      18.415  17.531  10.125  0.00  0.00     0.020 A 
ATOM     41  C   UNL d   1      17.751  18.748  10.013  0.00  0.00     0.012 A 
ENDBRANCH  35  36
ENDBRANCH  32  35
BRANCH  34  42
ATOM     42  C   UNL d   1      15.271  21.016   4.518  0.00  0.00     0.253 C 
ATOM     43  N   UNL d   1      16.215  20.023   4.679  0.00  0.00    -0.351 N 
ATOM     44  H   UNL d   1      17.030  20.305   5.222  0.00  0.00     0.163 HD
ATOM     45  O   UNL d   1      14.291  20.910   3.771  0.00  0.00    -0.271 OA
BRANCH  43  46
ATOM     46  C   UNL d   1      16.210  18.731   3.976  0.00  0.00     0.022 C 
ATOM     47  C   UNL d   1      16.032  18.925   2.457  0.00  0.00     0.037 C 
ATOM     48  C   UNL d   1      17.559  18.017   4.185  0.00  0.00     0.037 C 
ATOM     49  C   UNL d   1      15.123  17.805   4.565  0.00  0.00     0.037 C 
ENDBRANCH  43  46
ENDBRANCH  34  42
ENDBRANCH  28  29
ENDBRANCH   1  28
TORSDOF 14
ENDMDL
